PDE 1994  6  9  0 33 16.40,   51.2400  178.7200 0.0 6. 6. FAKE INFO 
event name:    D07CA6PA
time shift:        0
half duration:     20
latitude:       46.00
longitude:     -135.00
depth:          20.0
Mrr:         6.29e+24
Mtt:         -1.12e+25
Mpp:         4.88e+24
Mrt:         -2.80e+24
Mrp:         -5.22e+24
Mtp:         3.40e+23
